Questionable use of curly braces in "b2 n008 0  v={if(sin(2*{pi}*150*time)>0,cos(2*{pi}*89k*time)*0.2,0)}"
    Error: undefined symbol in: "if(sin(2*(pi)*150*[time])>0,cos(2*(pi)*89k*time)*0.2,0)"
LTspice 24.0.12 for Windows
Circuit: * C:\Users\USER\Downloads\RadioDetector.asc
Start Time: Fri May 16 15:02:30 2025
solver = Normal
Maximum thread count: 20
tnom = 27
temp = 27
method = modified trap
WARNING: Node NC_02 is floating.
WARNING: Node NC_04 is floating.

WARNING: Less than two connections to node nc_01.  This node is used by b1.
WARNING: Less than two connections to node nc_02.  This node is used by b1.
WARNING: Less than two connections to node nc_03.  This node is used by d2.
WARNING: Less than two connections to node nc_04.  This node is used by d2.
WARNING: Less than two connections to node nc_05.  This node is used by v6.
Direct Newton iteration failed to find .op point.  (Use ".option noopiter" to skip.)
Starting Gmin stepping
Gmin = 10
Gmin = 1.07374
Gmin = 0.115292
Gmin = 0.0123794
Gmin = 0.00132923
Gmin = 0.000142725
Gmin = 1.5325e-05
vernier = 0.5
vernier = 0.25
vernier = 0.125
vernier = 0.0625
vernier = 0.03125
vernier = 0.015625
vernier = 0.0078125
vernier = 0.00390625
vernier = 0.00195312
Gmin = 1.5325e-05
vernier = 0.000976562
vernier = 0.000488281
Gmin = 0
Gmin stepping failed

Starting source stepping with srcstepmethod=0
Source Step = 3.0303%
Source Step = 33.3333%
Source Step = 63.6364%
Source Step = 93.9394%
Source stepping succeeded in finding the operating point.

Total elapsed time: 1.538 seconds.

